pandapower/opf/PpPmInterface/test/data/pm_test.json
{"gen": {"1": {"pg": 0.0, "qg": 0.0, "gen_bus": 1, "vg": 1.06, "qmax": 10.00000001, "gen_status": 1, "qmin": -1e-08, "pmin": -1e-08, "pmax": 332.40000001000004, "index": 1, "model": 2, "ncost": 3, "cost": [0.0430293, 20.0, 0.0]}, "2": {"pg": 40.0, "qg": 0.0, "gen_bus": 2, "vg": 1.045, "qmax": 50.00000001, "gen_status": 1, "qmin": -40.00000001, "pmin": -1e-08, "pmax": 140.00000001, "index": 2, "model": 2, "ncost": 3, "cost": [0.25, 20.0, 0.0]}, "3": {"pg": 0.0, "qg": 0.0, "gen_bus": 7, "vg": 1.01, "qmax": 40.00000001, "gen_status": 1, "qmin": -1e-08, "pmin": -1e-08, "pmax": 100.00000001, "index": 3, "model": 2, "ncost": 3, "cost": [0.01, 40.0, 0.0]}, "4": {"pg": 0.0, "qg": 0.0, "gen_bus": 10, "vg": 1.07, "qmax": 24.00000001, "gen_status": 1, "qmin": -6.00000001, "pmin": -1e-08, "pmax": 100.00000001, "index": 4, "model": 2, "ncost": 3, "cost": [0.01, 40.0, 0.0]}, "5": {"pg": 0.0, "qg": 0.0, "gen_bus": 12, "vg": 1.09, "qmax": 24.00000001, "gen_status": 1, "qmin": -6.00000001, "pmin": -1e-08, "pmax": 100.00000001, "index": 5, "model": 2, "ncost": 3, "cost": [0.01, 40.0, 0.0]}}, "branch": {"1": {"index": 1, "transformer": false, "br_r": 0.0001938, "br_x": 0.0005916999999999999, "g_fr": -0.0, "g_to": -0.0, "b_fr": 2.64, "b_to": 2.64, "rate_a": 9899.999999999998, "rate_b": 250.0, "rate_c": 250.0, "f_bus": 1, "t_bus": 2, "br_status": 1, "angmin": -1.0471975511965976, "angmax": 1.0471975511965976, "tap": 1.0, "shift": 0.0}, "2": {"index": 2, "transformer": false, "br_r": 0.0005403, "br_x": 0.0022304, "g_fr": -0.0, "g_to": -0.0, "b_fr": 2.46, "b_to": 2.46, "rate_a": 9899.999999999998, "rate_b": 250.0, "rate_c": 250.0, "f_bus": 1, "t_bus": 9, "br_status": 1, "angmin": -1.0471975511965976, "angmax": 1.0471975511965976, "tap": 1.0, "shift": 0.0}, "3": {"index": 3, "transformer": false, "br_r": 0.00031810000000000003, "br_x": 0.0008449999999999999, "g_fr": -0.0, "g_to": -0.0, "b_fr": 0.0, "b_to": 0.0, "rate_a": 9900.0, "rate_b": 250.0, "rate_c": 250.0, "f_bus": 13, "t_bus": 14, "br_status": 1, "angmin": -1.0471975511965976, "angmax": 1.0471975511965976, "tap": 1.0, "shift": 0.0}, "4": {"index": 4, "transformer": false, "br_r": 0.0012711, "br_x": 0.0027038, "g_fr": -0.0, "g_to": -0.0, "b_fr": 0.0, "b_to": 0.0, "rate_a": 9900.0, "rate_b": 250.0, "rate_c": 250.0, "f_bus": 13, "t_bus": 6, "br_status": 1, "angmin": -1.0471975511965976, "angmax": 1.0471975511965976, "tap": 1.0, "shift": 0.0}, "5": {"index": 5, "transformer": false, "br_r": 0.0008205, "br_x": 0.0019207000000000002, "g_fr": -0.0, "g_to": -0.0, "b_fr": 0.0, "b_to": 0.0, "rate_a": 9900.0, "rate_b": 250.0, "rate_c": 250.0, "f_bus": 14, "t_bus": 3, "br_status": 1, "angmin": -1.0471975511965976, "angmax": 1.0471975511965976, "tap": 1.0, "shift": 0.0}, "6": {"index": 6, "transformer": false, "br_r": 0.0022092, "br_x": 0.0019988, "g_fr": -0.0, "g_to": -0.0, "b_fr": 0.0, "b_to": 0.0, "rate_a": 9900.0, "rate_b": 250.0, "rate_c": 250.0, "f_bus": 4, "t_bus": 5, "br_status": 1, "angmin": -1.0471975511965976, "angmax": 1.0471975511965976, "tap": 1.0, "shift": 0.0}, "7": {"index": 7, "transformer": false, "br_r": 0.0017093, "br_x": 0.0034802, "g_fr": -0.0, "g_to": -0.0, "b_fr": 0.0, "b_to": 0.0, "rate_a": 9900.0, "rate_b": 250.0, "rate_c": 250.0, "f_bus": 5, "t_bus": 6, "br_status": 1, "angmin": -1.0471975511965976, "angmax": 1.0471975511965976, "tap": 1.0, "shift": 0.0}, "8": {"index": 8, "transformer": false, "br_r": 0.0004699, "br_x": 0.0019797, "g_fr": -0.0, "g_to": -0.0, "b_fr": 2.1900000000000004, "b_to": 2.1900000000000004, "rate_a": 9899.999999999998, "rate_b": 250.0, "rate_c": 250.0, "f_bus": 2, "t_bus": 7, "br_status": 1, "angmin": -1.0471975511965976, "angmax": 1.0471975511965976, "tap": 1.0, "shift": 0.0}, "9": {"index": 9, "transformer": false, "br_r": 0.0005811, "br_x": 0.0017632000000000001, "g_fr": -0.0, "g_to": -0.0, "b_fr": 1.7000000000000004, "b_to": 1.7000000000000004, "rate_a": 9899.999999999998, "rate_b": 250.0, "rate_c": 250.0, "f_bus": 2, "t_bus": 8, "br_status": 1, "angmin": -1.0471975511965976, "angmax": 1.0471975511965976, "tap": 1.0, "shift": 0.0}, "10": {"index": 10, "transformer": false, "br_r": 0.0005695, "br_x": 0.0017388, "g_fr": -0.0, "g_to": -0.0, "b_fr": 1.7300000000000004, "b_to": 1.7300000000000004, "rate_a": 9899.999999999998, "rate_b": 250.0, "rate_c": 250.0, "f_bus": 2, "t_bus": 9, "br_status": 1, "angmin": -1.0471975511965976, "angmax": 1.0471975511965976, "tap": 1.0, "shift": 0.0}, "11": {"index": 11, "transformer": false, "br_r": 0.0006701, "br_x": 0.0017102999999999999, "g_fr": -0.0, "g_to": -0.0, "b_fr": 0.6400000000000001, "b_to": 0.6400000000000001, "rate_a": 9899.999999999998, "rate_b": 250.0, "rate_c": 250.0, "f_bus": 7, "t_bus": 8, "br_status": 1, "angmin": -1.0471975511965976, "angmax": 1.0471975511965976, "tap": 1.0, "shift": 0.0}, "12": {"index": 12, "transformer": false, "br_r": 0.00013350000000000002, "br_x": 0.0004211, "g_fr": -0.0, "g_to": -0.0, "b_fr": 0.0, "b_to": 0.0, "rate_a": 9899.999999999998, "rate_b": 250.0, "rate_c": 250.0, "f_bus": 8, "t_bus": 9, "br_status": 1, "angmin": -1.0471975511965976, "angmax": 1.0471975511965976, "tap": 1.0, "shift": 0.0}, "13": {"index": 13, "transformer": false, "br_r": 0.0009498, "br_x": 0.0019890000000000003, "g_fr": -0.0, "g_to": -0.0, "b_fr": 0.0, "b_to": 0.0, "rate_a": 9900.0, "rate_b": 250.0, "rate_c": 250.0, "f_bus": 10, "t_bus": 3, "br_status": 1, "angmin": -1.0471975511965976, "angmax": 1.0471975511965976, "tap": 1.0, "shift": 0.0}, "14": {"index": 14, "transformer": false, "br_r": 0.0012291000000000001, "br_x": 0.0025581000000000002, "g_fr": -0.0, "g_to": -0.0, "b_fr": 0.0, "b_to": 0.0, "rate_a": 9900.0, "rate_b": 250.0, "rate_c": 250.0, "f_bus": 10, "t_bus": 4, "br_status": 1, "angmin": -1.0471975511965976, "angmax": 1.0471975511965976, "tap": 1.0, "shift": 0.0}, "15": {"index": 15, "transformer": false, "br_r": 0.0006615000000000001, "br_x": 0.0013027000000000002, "g_fr": -0.0, "g_to": -0.0, "b_fr": 0.0, "b_to": 0.0, "rate_a": 9900.0, "rate_b": 250.0, "rate_c": 250.0, "f_bus": 10, "t_bus": 5, "br_status": 1, "angmin": -1.0471975511965976, "angmax": 1.0471975511965976, "tap": 1.0, "shift": 0.0}, "16": {"index": 16, "transformer": true, "br_r": 0.0, "br_x": 0.0020912, "g_fr": -0.0, "g_to": -0.0, "b_fr": 0.0, "b_to": 0.0, "rate_a": 9900.0, "rate_b": 250.0, "rate_c": 250.0, "f_bus": 8, "t_bus": 11, "br_status": 1, "angmin": -1.0471975511965976, "angmax": 1.0471975511965976, "tap": 0.9780000000000001, "shift": 0.0}, "17": {"index": 17, "transformer": true, "br_r": 0.0, "br_x": 0.0055617999999999996, "g_fr": -0.0, "g_to": -0.0, "b_fr": 0.0, "b_to": 0.0, "rate_a": 9900.0, "rate_b": 250.0, "rate_c": 250.0, "f_bus": 8, "t_bus": 13, "br_status": 1, "angmin": -1.0471975511965976, "angmax": 1.0471975511965976, "tap": 0.9690000000000001, "shift": 0.0}, "18": {"index": 18, "transformer": true, "br_r": 0.0, "br_x": 0.0025202000000000002, "g_fr": -0.0, "g_to": -0.0, "b_fr": 0.0, "b_to": 0.0, "rate_a": 9900.0, "rate_b": 250.0, "rate_c": 250.0, "f_bus": 9, "t_bus": 10, "br_status": 1, "angmin": -1.0471975511965976, "angmax": 1.0471975511965976, "tap": 0.932, "shift": 0.0}, "19": {"index": 19, "transformer": true, "br_r": 0.0, "br_x": 0.0017614999999999998, "g_fr": -0.0, "g_to": -0.0, "b_fr": 0.0, "b_to": 0.0, "rate_a": 9900.0, "rate_b": 250.0, "rate_c": 250.0, "f_bus": 11, "t_bus": 12, "br_status": 1, "angmin": -1.0471975511965976, "angmax": 1.0471975511965976, "tap": 1.0, "shift": 0.0}, "20": {"index": 20, "transformer": true, "br_r": 0.0, "br_x": 0.0011001, "g_fr": -0.0, "g_to": -0.0, "b_fr": 0.0, "b_to": 0.0, "rate_a": 9900.0, "rate_b": 250.0, "rate_c": 250.0, "f_bus": 11, "t_bus": 13, "br_status": 1, "angmin": -1.0471975511965976, "angmax": 1.0471975511965976, "tap": 1.0, "shift": 0.0}}, "bus": {"1": {"index": 1, "bus_i": 1, "zone": 1, "bus_type": 3, "vmax": 1.06000001, "vmin": 1.0599999900000001, "va": 0.0, "vm": 1.06, "base_kv": 135.0}, "2": {"index": 2, "bus_i": 2, "zone": 1, "bus_type": 2, "vmax": 1.06, "vmin": 0.94, "va": 0.0, "vm": 1.045, "base_kv": 135.0}, "3": {"index": 3, "bus_i": 3, "zone": 1, "bus_type": 1, "vmax": 1.06, "vmin": 0.94, "va": 0.0, "vm": 1.0, "base_kv": 0.208}, "4": {"index": 4, "bus_i": 4, "zone": 1, "bus_type": 1, "vmax": 1.06, "vmin": 0.94, "va": 0.0, "vm": 1.0, "base_kv": 0.208}, "5": {"index": 5, "bus_i": 5, "zone": 1, "bus_type": 1, "vmax": 1.06, "vmin": 0.94, "va": 0.0, "vm": 1.0, "base_kv": 0.208}, "6": {"index": 6, "bus_i": 6, "zone": 1, "bus_type": 1, "vmax": 1.06, "vmin": 0.94, "va": 0.0, "vm": 1.0, "base_kv": 0.208}, "7": {"index": 7, "bus_i": 7, "zone": 1, "bus_type": 2, "vmax": 1.06, "vmin": 0.94, "va": 0.0, "vm": 1.01, "base_kv": 135.0}, "8": {"index": 8, "bus_i": 8, "zone": 1, "bus_type": 1, "vmax": 1.06, "vmin": 0.94, "va": 0.0, "vm": 1.0, "base_kv": 135.0}, "9": {"index": 9, "bus_i": 9, "zone": 1, "bus_type": 1, "vmax": 1.06, "vmin": 0.94, "va": 0.0, "vm": 1.0, "base_kv": 135.0}, "10": {"index": 10, "bus_i": 10, "zone": 1, "bus_type": 2, "vmax": 1.06, "vmin": 0.94, "va": 0.0, "vm": 1.07, "base_kv": 0.208}, "11": {"index": 11, "bus_i": 11, "zone": 1, "bus_type": 1, "vmax": 1.06, "vmin": 0.94, "va": 0.0, "vm": 1.0, "base_kv": 14.0}, "12": {"index": 12, "bus_i": 12, "zone": 1, "bus_type": 2, "vmax": 1.06, "vmin": 0.94, "va": 0.0, "vm": 1.09, "base_kv": 12.0}, "13": {"index": 13, "bus_i": 13, "zone": 1, "bus_type": 1, "vmax": 1.06, "vmin": 0.94, "va": 0.0, "vm": 1.0, "base_kv": 0.208}, "14": {"index": 14, "bus_i": 14, "zone": 1, "bus_type": 1, "vmax": 1.06, "vmin": 0.94, "va": 0.0, "vm": 1.0, "base_kv": 0.208}}, "dcline": {}, "load": {"1": {"pd": 21.7, "qd": 12.7, "load_bus": 2, "status": 1, "index": 1}, "2": {"pd": 94.2, "qd": 19.0, "load_bus": 7, "status": 1, "index": 2}, "3": {"pd": 14.9, "qd": 5.0, "load_bus": 6, "status": 1, "index": 3}, "4": {"pd": 47.8, "qd": -3.9, "load_bus": 8, "status": 1, "index": 4}, "5": {"pd": 7.6, "qd": 1.6, "load_bus": 9, "status": 1, "index": 5}, "6": {"pd": 11.2, "qd": 7.5, "load_bus": 10, "status": 1, "index": 6}, "7": {"pd": 29.5, "qd": 16.6, "load_bus": 13, "status": 1, "index": 7}, "8": {"pd": 9.0, "qd": 5.8, "load_bus": 14, "status": 1, "index": 8}, "9": {"pd": 3.5, "qd": 1.8, "load_bus": 3, "status": 1, "index": 9}, "10": {"pd": 6.1, "qd": 1.6, "load_bus": 4, "status": 1, "index": 10}, "11": {"pd": 13.5, "qd": 5.8, "load_bus": 5, "status": 1, "index": 11}}, "storage": {}, "ne_branch": {}, "switch": {}, "baseMVA": 1.0, "source_version": "2.0.0", "shunt": {"1": {"gs": 0.0, "bs": 19.0, "shunt_bus": 13, "status": true, "index": 1}}, "sourcetype": "matpower", "per_unit": true, "name": "", "pm_solver": "gurobi", "pm_mip_solver": "cbc", "pm_nl_solver": "ipopt", "pm_model": "DCPPowerModel", "pm_log_level": 0, "pm_time_limit": Infinity, "pm_nl_time_limit": Infinity, "pm_mip_time_limit": Infinity, "correct_pm_network_data": true}